[Format]      =  4.0
[Frequency]   =  0
[Precision]   =  1e-008
[MinAngle]    =  18
[DoSmartMesh] =  1
[Depth]       =  12
[LengthUnits] =  millimeters
[ProblemType] =  planar
[Coordinates] =  cartesian
[ACSolver]    =  0
[PrevType]    =  0
[PrevSoln]    =  ""
[Comment]     =  "Add comments here."
[PointProps]   = 0
[BdryProps]   = 2
  <BeginBdry>
    <BdryName> = "Boundary"
    <BdryType> = 0
    <A_0> = 0
    <A_1> = 0
    <A_2> = 0
    <Phi> = 0
    <c0> = 0
    <c0i> = 0
    <c1> = 0
    <c1i> = 0
    <Mu_ssd> = 0
    <Sigma_ssd> = 0
    <innerangle> = 0
    <outerangle> = 0
  <EndBdry>
  <BeginBdry>
    <BdryName> = "A=0"
    <BdryType> = 0
    <A_0> = 0
    <A_1> = 0
    <A_2> = 0
    <Phi> = 0
    <c0> = 0
    <c0i> = 0
    <c1> = 0
    <c1i> = 0
    <Mu_ssd> = 0
    <Sigma_ssd> = 0
    <innerangle> = 0
    <outerangle> = 0
  <EndBdry>
[BlockProps]  = 14
  <BeginBlock>
    <BlockName> = "Air"
    <Mu_x> = 1
    <Mu_y> = 1
    <H_c> = 0
    <H_cAngle> = 0
    <J_re> = 0
    <J_im> = 0
    <Sigma> = 0
    <d_lam> = 0
    <Phi_h> = 0
    <Phi_hx> = 0
    <Phi_hy> = 0
    <LamType> = 0
    <LamFill> = 1
    <NStrands> = 0
    <WireD> = 0
    <BHPoints> = 0
  <EndBlock>
  <BeginBlock>
    <BlockName> = "N50"
    <Mu_x> = 1.05
    <Mu_y> = 1.05
    <H_c> = 987837
    <H_cAngle> = 0
    <J_re> = 0
    <J_im> = 0
    <Sigma> = 0.66700000000000004
    <d_lam> = 0
    <Phi_h> = 0
    <Phi_hx> = 0
    <Phi_hy> = 0
    <LamType> = 0
    <LamFill> = 1
    <NStrands> = 0
    <WireD> = 0
    <BHPoints> = 8
      0	0
      0.0717	11297
      0.14349999999999999	30636
      0.2152	67096
      0.28689999999999999	118309
      0.35859999999999997	172428
      0.4304	226773
      1.4346000000000001	987837
  <EndBlock>
  <BeginBlock>
    <BlockName> = "N52"
    <Mu_x> = 1.05
    <Mu_y> = 1.05
    <H_c> = 956180
    <H_cAngle> = 0
    <J_re> = 0
    <J_im> = 0
    <Sigma> = 0.66700000000000004
    <d_lam> = 0
    <Phi_h> = 0
    <Phi_hx> = 0
    <Phi_hy> = 0
    <LamType> = 0
    <LamFill> = 1
    <NStrands> = 0
    <WireD> = 0
    <BHPoints> = 8
      0	0
      0.073200000000000001	7484
      0.1464	18446
      0.2195	37084
      0.29270000000000002	72766
      0.3659	124571
      0.43909999999999999	179757
      1.4636	956180
  <EndBlock>
  <BeginBlock>
    <BlockName> = "1018 Steel"
    <Mu_x> = 529
    <Mu_y> = 529
    <H_c> = 0
    <H_cAngle> = 0
    <J_re> = 0
    <J_im> = 0
    <Sigma> = 5.7999999999999998
    <d_lam> = 0
    <Phi_h> = 20
    <Phi_hx> = 0
    <Phi_hy> = 0
    <LamType> = 0
    <LamFill> = 1
    <NStrands> = 0
    <WireD> = 0
    <BHPoints> = 13
      0	0
      0.25030000000000002	238.73249999999999
      0.92500000000000004	795.77499999999998
      1.25	1591.55
      1.3899999999999999	2387.3249999999998
      1.5249999999999999	3978.875
      1.71	7957.75
      1.8700000000000001	15915.5
      1.9550000000000001	23873.25
      2.02	39788.75
      2.1099999999999999	79577.5
      2.2250000000000001	159155
      2.4300000000000002	318310
  <EndBlock>
  <BeginBlock>
    <BlockName> = "M-15 Steel"
    <Mu_x> = 1
    <Mu_y> = 1
    <H_c> = 0
    <H_cAngle> = 0
    <J_re> = 0
    <J_im> = 0
    <Sigma> = 1.8999999999999999
    <d_lam> = 0.63500000000000001
    <Phi_h> = 0
    <Phi_hx> = 0
    <Phi_hy> = 0
    <LamType> = 0
    <LamFill> = 0.97999999999999998
    <NStrands> = 0
    <WireD> = 0
    <BHPoints> = 47
      0	0
      0.050000000000000003	15.120714
      0.10000000000000001	22.718292000000002
      0.14999999999999999	27.842732999999999
      0.20000000000000001	31.871434000000001
      0.25	35.365043999999997
      0.29999999999999999	38.600588000000002
      0.34999999999999998	41.736201999999999
      0.40000000000000002	44.873978999999999
      0.45000000000000001	48.087806999999998
      0.5	51.437235999999999
      0.55000000000000004	54.975220999999998
      0.59999999999999998	58.752992999999996
      0.65000000000000002	62.823644000000002
      0.69999999999999996	67.245284999999996
      0.75	72.084406000000001
      0.80000000000000004	77.420100000000005
      0.84999999999999998	83.350020999999998
      0.90000000000000002	89.999611999999999
      0.94999999999999996	97.537352999999996
      1	106.20140600000001
      1.05	116.34846400000001
      1.1000000000000001	128.54732899999999
      1.1499999999999999	143.76543100000001
      1.2	163.75416899999999
      1.25	191.86815799999999
      1.3	234.833507
      1.3500000000000001	306.50976900000001
      1.3999999999999999	435.255202
      1.45	674.911968
      1.5	1108.3255690000001
      1.55	1813.085468
      1.6000000000000001	2801.2174209999998
      1.6499999999999999	4053.6531169999998
      1.7	5591.10689
      1.75	7448.318413
      1.8	9708.81567
      1.8500000000000001	12486.931615
      1.8999999999999999	16041.483644
      1.95	21249.420623999998
      2	31313.495878000002
      2.0499999999999998	53589.446877000002
      2.1000000000000001	88477.484601000004
      2.1499999999999999	124329.41054
      2.2000000000000002	159968.5693
      2.25	197751.604272
      2.2999999999999998	234024.75134700001
  <EndBlock>
  <BeginBlock>
    <BlockName> = "1mm"
    <Mu_x> = 1
    <Mu_y> = 1
    <H_c> = 0
    <H_cAngle> = 0
    <J_re> = 0
    <J_im> = 0
    <Sigma> = 58
    <d_lam> = 0
    <Phi_h> = 0
    <Phi_hx> = 0
    <Phi_hy> = 0
    <LamType> = 3
    <LamFill> = 1
    <NStrands> = 1
    <WireD> = 1
    <BHPoints> = 0
  <EndBlock>
  <BeginBlock>
    <BlockName> = "u1"
    <Mu_x> = 2.6498996896116669
    <Mu_y> = 2.6498996896116669
    <H_c> = 0
    <H_cAngle> = 0
    <J_re> = 0
    <J_im> = 0
    <Sigma> = 0
    <d_lam> = 0
    <Phi_h> = 0
    <Phi_hx> = 0
    <Phi_hy> = 0
    <LamType> = 0
    <LamFill> = 1
    <NStrands> = 0
    <WireD> = 0
    <BHPoints> = 0
  <EndBlock>
  <BeginBlock>
    <BlockName> = "u2"
    <Mu_x> = 0.12953316809300527
    <Mu_y> = 0.12953316809300527
    <H_c> = 0
    <H_cAngle> = 0
    <J_re> = 0
    <J_im> = 0
    <Sigma> = 0
    <d_lam> = 0
    <Phi_h> = 0
    <Phi_hx> = 0
    <Phi_hy> = 0
    <LamType> = 0
    <LamFill> = 1
    <NStrands> = 0
    <WireD> = 0
    <BHPoints> = 0
  <EndBlock>
  <BeginBlock>
    <BlockName> = "u3"
    <Mu_x> = 14.398967120915913
    <Mu_y> = 14.398967120915913
    <H_c> = 0
    <H_cAngle> = 0
    <J_re> = 0
    <J_im> = 0
    <Sigma> = 0
    <d_lam> = 0
    <Phi_h> = 0
    <Phi_hx> = 0
    <Phi_hy> = 0
    <LamType> = 0
    <LamFill> = 1
    <NStrands> = 0
    <WireD> = 0
    <BHPoints> = 0
  <EndBlock>
  <BeginBlock>
    <BlockName> = "u4"
    <Mu_x> = 0.042882574356338271
    <Mu_y> = 0.042882574356338271
    <H_c> = 0
    <H_cAngle> = 0
    <J_re> = 0
    <J_im> = 0
    <Sigma> = 0
    <d_lam> = 0
    <Phi_h> = 0
    <Phi_hx> = 0
    <Phi_hy> = 0
    <LamType> = 0
    <LamFill> = 1
    <NStrands> = 0
    <WireD> = 0
    <BHPoints> = 0
  <EndBlock>
  <BeginBlock>
    <BlockName> = "u5"
    <Mu_x> = 37.197476986533054
    <Mu_y> = 37.197476986533054
    <H_c> = 0
    <H_cAngle> = 0
    <J_re> = 0
    <J_im> = 0
    <Sigma> = 0
    <d_lam> = 0
    <Phi_h> = 0
    <Phi_hx> = 0
    <Phi_hy> = 0
    <LamType> = 0
    <LamFill> = 1
    <NStrands> = 0
    <WireD> = 0
    <BHPoints> = 0
  <EndBlock>
  <BeginBlock>
    <BlockName> = "u6"
    <Mu_x> = 0.015664246064106369
    <Mu_y> = 0.015664246064106369
    <H_c> = 0
    <H_cAngle> = 0
    <J_re> = 0
    <J_im> = 0
    <Sigma> = 0
    <d_lam> = 0
    <Phi_h> = 0
    <Phi_hx> = 0
    <Phi_hy> = 0
    <LamType> = 0
    <LamFill> = 1
    <NStrands> = 0
    <WireD> = 0
    <BHPoints> = 0
  <EndBlock>
  <BeginBlock>
    <BlockName> = "u7"
    <Mu_x> = 142.03015659052124
    <Mu_y> = 142.03015659052124
    <H_c> = 0
    <H_cAngle> = 0
    <J_re> = 0
    <J_im> = 0
    <Sigma> = 0
    <d_lam> = 0
    <Phi_h> = 0
    <Phi_hx> = 0
    <Phi_hy> = 0
    <LamType> = 0
    <LamFill> = 1
    <NStrands> = 0
    <WireD> = 0
    <BHPoints> = 0
  <EndBlock>
  <BeginBlock>
    <BlockName> = "Aluminum, 6061-T6"
    <Mu_x> = 1
    <Mu_y> = 1
    <H_c> = 0
    <H_cAngle> = 0
    <J_re> = 0
    <J_im> = 0
    <Sigma> = 24.59
    <d_lam> = 0
    <Phi_h> = 0
    <Phi_hx> = 0
    <Phi_hy> = 0
    <LamType> = 0
    <LamFill> = 1
    <NStrands> = 0
    <WireD> = 0
    <BHPoints> = 0
  <EndBlock>
[CircuitProps]  = 6
  <BeginCircuit>
    <CircuitName> = "A+"
    <TotalAmps_re> = 0
    <TotalAmps_im> = 0
    <CircuitType> = 1
  <EndCircuit>
  <BeginCircuit>
    <CircuitName> = "A-"
    <TotalAmps_re> = 0
    <TotalAmps_im> = 0
    <CircuitType> = 1
  <EndCircuit>
  <BeginCircuit>
    <CircuitName> = "B+"
    <TotalAmps_re> = 18
    <TotalAmps_im> = 0
    <CircuitType> = 1
  <EndCircuit>
  <BeginCircuit>
    <CircuitName> = "B-"
    <TotalAmps_re> = -18
    <TotalAmps_im> = 0
    <CircuitType> = 1
  <EndCircuit>
  <BeginCircuit>
    <CircuitName> = "C+"
    <TotalAmps_re> = 18
    <TotalAmps_im> = 0
    <CircuitType> = 1
  <EndCircuit>
  <BeginCircuit>
    <CircuitName> = "C-"
    <TotalAmps_re> = -18
    <TotalAmps_im> = 0
    <CircuitType> = 1
  <EndCircuit>
[NumPoints] = 884
4.8026682873000004	53.465596801899999	0	0
4.6303308170999999	51.165913082099998	0	0
3.2196072592	53.584230825500001	0	0
3.0472697891	51.2845471057	0	0
18.8707984449	-50.254637896600002	0	0
18.0282737691	-48.107920033100001	0	0
20.348560520900001	-49.6746590204	0	0
19.506035845100001	-47.527941156899999	0	0
26.150092335699998	-46.8807885481	0	0
24.997026269199999	-44.883619536499999	0	0
27.524907664299999	-46.087038548099997	0	0
26.3718415978	-44.089869536499997	0	0
32.845236375600003	-42.459699851700002	0	0
31.4073865089	-40.656693147399999	0	0
34.086393854000001	-41.469909791200003	0	0
32.648543987300002	-39.6669030869	0	0
38.806672109899999	-37.0901316231	0	0
37.116157633100002	-35.521563416600003	0	0
39.886446331099997	-35.926411776599998	0	0
38.195931854299999	-34.35784357	0	0
43.901230915299998	-30.892031143699999	0	0
41.995815128300002	-29.5929406566	0	0
44.795501507499999	-29.580377089500001	0	0
42.890085720499997	-28.281286602400002	0	0
48.015108766700003	-24.003853736	0	0
45.937355509600003	-23.003260503300002	0	0
48.703899202599999	-22.5735656582	0	0
46.626145945499999	-21.572972425500001	0	0
51.056408430899999	-16.579469901100001	0	0
48.852731278	-15.899725522000001	0	0
51.5243322703	-15.0624980719	0	0
49.320655117400001	-14.3827536928	0	0
52.957192298899997	-8.7847281052999993	0	0
50.676817756399998	-8.4410169460999995	0	0
53.193796896400002	-7.2149591687000001	0	0
50.913422353999998	-6.8712480095000004	0	0
53.674999999999997	-0.79374999999999996	0	0
51.368867866999999	-0.79374999999999996	0	0
53.674999999999997	0.79374999999999996	0	0
51.368867866999999	0.79374999999999996	0	0
53.193796896400002	7.2149591687000001	0	0
50.913422353999998	6.8712480095000004	0	0
52.957192298899997	8.7847281052999993	0	0
50.676817756399998	8.4410169460999995	0	0
51.5243322703	15.0624980719	0	0
49.320655117400001	14.3827536928	0	0
51.056408430899999	16.579469901100001	0	0
48.852731278	15.899725522000001	0	0
48.703899202599999	22.5735656582	0	0
46.626145945499999	21.572972425500001	0	0
48.015108766700003	24.003853736	0	0
45.937355509600003	23.003260503300002	0	0
44.795501507499999	29.580377089500001	0	0
42.890085720499997	28.281286602400002	0	0
43.901230915299998	30.892031143699999	0	0
41.995815128300002	29.5929406566	0	0
39.886446331099997	35.926411776599998	0	0
38.195931854299999	34.35784357	0	0
38.806672109899999	37.0901316231	0	0
37.116157633100002	35.521563416600003	0	0
34.086393854000001	41.469909791200003	0	0
32.648543987300002	39.6669030869	0	0
32.845236375600003	42.459699851700002	0	0
31.4073865089	40.656693147399999	0	0
27.524907664299999	46.087038548099997	0	0
26.3718415978	44.089869536499997	0	0
26.150092335699998	46.8807885481	0	0
24.997026269199999	44.883619536499999	0	0
20.348560520900001	49.6746590204	0	0
19.506035845100001	47.527941156899999	0	0
18.8707984449	50.254637896600002	0	0
18.0282737691	48.107920033100001	0	0
12.717660160399999	52.152629695000002	0	0
12.204497484299999	49.904317109399997	0	0
11.169962099799999	52.505881677700003	0	0
10.656799423700001	50.257569091999997	0	0
-2.5	53.5	0	0
2.5	53.5	0	0
-2.5	51.314136697400002	0	0
2.5	51.314136697400002	0	0
53.163577915200001	6.4910694998	0	0
53.537228383200002	1.5050505139000001	0	0
50.983826729800001	6.3277197307000002	0	0
51.3574771977	1.3417007448	0	0
53.537228383200002	-1.5050505139000001	0	0
53.163577915200001	-6.4910694998	0	0
51.3574771977	-1.3417007448	0	0
50.983826729800001	-6.3277197307000002	0	0
52.7149456366	-9.4675501862000004	0	0
51.6023409668	-14.342189747100001	0	0
50.583886490700003	-8.9811498426000007	0	0
49.471281820900003	-13.855789403499999	0	0
50.715098113400003	-17.218560432	0	0
48.888392991499998	-21.872929175199999	0	0
48.680335346900002	-16.419974893900001	0	0
46.853630225000003	-21.0743436371	0	0
47.5823591025	-24.584936490499999	0	0
45.0823591025	-28.915063509500001	0	0
45.689345953199997	-23.4920048392	0	0
43.189345953199997	-27.822131858199999	0	0
43.386708816700001	-31.4021256933	0	0
40.269259807399997	-35.311283105599998	0	0
41.677732070300003	-30.039262215800001	0	0
38.560283061100002	-33.9484196282	0	0
38.221871150299997	-37.517843298499997	0	0
34.556611791199998	-40.918706987299998	0	0
36.735106523399999	-35.915492112899997	0	0
33.0698471643	-39.3163558018	0	0
32.203220042200002	-42.795474280699999	0	0
28.072026170600001	-45.612074571100003	0	0
30.971879399700001	-40.989429264800002	0	0
26.8406855281	-43.806029555099997	0	0
25.465202212499999	-47.117125084999998	0	0
20.960357873	-49.286543780599999	0	0
24.5167916696	-45.147730299899997	0	0
20.0119473301	-47.317148995399997	0	0
18.158333845400001	-50.386257173499999	0	0
13.3804698165	-51.860033045599998	0	0
17.514039326500001	-48.297505644399997	0	0
12.736175297500001	-49.771281516499997	0	0
10.445838306000001	-52.529843537600001	0	0
5.5016841749000003	-53.2750548685	0	0
10.1200522858	-50.368394522099997	0	0
5.1758981546999996	-51.113605853000003	0	0
2.5	-53.5	0	0
-2.5	-53.5	0	0
2.5	-51.314136697400002	0	0
-2.5	-51.314136697400002	0	0
-5.5016841749000003	-53.2750548685	0	0
-10.445838306000001	-52.529843537600001	0	0
-5.1758981546999996	-51.113605853000003	0	0
-10.1200522858	-50.368394522099997	0	0
-13.3804698165	-51.860033045599998	0	0
-18.158333845400001	-50.386257173499999	0	0
-12.736175297500001	-49.771281516499997	0	0
-17.514039326500001	-48.297505644399997	0	0
-20.960357873	-49.286543780599999	0	0
-25.465202212499999	-47.117125084999998	0	0
-20.0119473301	-47.317148995399997	0	0
-24.5167916696	-45.147730299899997	0	0
-28.072026170600001	-45.612074571100003	0	0
-32.203220042200002	-42.795474280699999	0	0
-26.8406855281	-43.806029555099997	0	0
-30.971879399700001	-40.989429264800002	0	0
-34.556611791199998	-40.918706987299998	0	0
-38.221871150299997	-37.517843298499997	0	0
-33.0698471643	-39.3163558018	0	0
-36.735106523399999	-35.915492112899997	0	0
-40.269259807399997	-35.311283105599998	0	0
-43.386708816700001	-31.4021256933	0	0
-38.560283061100002	-33.9484196282	0	0
-41.677732070300003	-30.039262215800001	0	0
-45.0823591025	-28.915063509500001	0	0
-47.5823591025	-24.584936490499999	0	0
-43.189345953199997	-27.822131858199999	0	0
-45.689345953199997	-23.4920048392	0	0
-48.888392991499998	-21.872929175199999	0	0
-50.715098113400003	-17.218560432	0	0
-46.853630225000003	-21.0743436371	0	0
-48.680335346900002	-16.419974893900001	0	0
-51.6023409668	-14.342189747100001	0	0
-52.7149456366	-9.4675501862000004	0	0
-49.471281820900003	-13.855789403499999	0	0
-50.583886490700003	-8.9811498426000007	0	0
-53.163577915200001	-6.4910694998	0	0
-53.537228383200002	-1.5050505139000001	0	0
-50.983826729800001	-6.3277197307000002	0	0
-51.3574771977	-1.3417007448	0	0
-53.537228383200002	1.5050505139000001	0	0
-53.163577915200001	6.4910694998	0	0
-51.3574771977	1.3417007448	0	0
-50.983826729800001	6.3277197307000002	0	0
-52.7149456366	9.4675501862000004	0	0
-51.6023409668	14.342189747100001	0	0
-50.583886490700003	8.9811498426000007	0	0
-49.471281820900003	13.855789403499999	0	0
-50.715098113400003	17.218560432	0	0
-48.888392991499998	21.872929175199999	0	0
-48.680335346900002	16.419974893900001	0	0
-46.853630225000003	21.0743436371	0	0
-47.5823591025	24.584936490499999	0	0
-45.0823591025	28.915063509500001	0	0
-45.689345953199997	23.4920048392	0	0
-43.189345953199997	27.822131858199999	0	0
-43.386708816700001	31.4021256933	0	0
-40.269259807399997	35.311283105599998	0	0
-41.677732070300003	30.039262215800001	0	0
-38.560283061100002	33.9484196282	0	0
-38.221871150299997	37.517843298499997	0	0
-34.556611791199998	40.918706987299998	0	0
-36.735106523399999	35.915492112899997	0	0
-33.0698471643	39.3163558018	0	0
-32.203220042200002	42.795474280699999	0	0
-28.072026170600001	45.612074571100003	0	0
-30.971879399700001	40.989429264800002	0	0
-26.8406855281	43.806029555099997	0	0
-25.465202212499999	47.117125084999998	0	0
-20.960357873	49.286543780599999	0	0
-24.5167916696	45.147730299899997	0	0
-20.0119473301	47.317148995399997	0	0
-18.158333845400001	50.386257173499999	0	0
-13.3804698165	51.860033045599998	0	0
-17.514039326500001	48.297505644399997	0	0
-12.736175297500001	49.771281516499997	0	0
-10.445838306000001	52.529843537600001	0	0
-5.5016841749000003	53.2750548685	0	0
-10.1200522858	50.368394522099997	0	0
-5.1758981546999996	51.113605853000003	0	0
11.169962099799999	-52.505881677700003	0	0
10.656799423800001	-50.257569091999997	0	0
12.717660160399999	-52.152629695000002	0	0
12.204497484299999	-49.904317109399997	0	0
3.2196072592	-53.584230825500001	0	0
3.0472697891	-51.2845471057	0	0
4.8026682873000004	-53.465596801899999	0	0
4.6303308170999999	-51.165913082099998	0	0
-4.8026682873000004	-53.465596801899999	0	0
-4.6303308170999999	-51.165913082099998	0	0
-3.2196072592	-53.584230825500001	0	0
-3.0472697891	-51.2845471057	0	0
-12.717660160399999	-52.152629695000002	0	0
-12.204497484299999	-49.904317109399997	0	0
-11.169962099799999	-52.505881677700003	0	0
-10.656799423700001	-50.257569091999997	0	0
-20.348560520900001	-49.6746590204	0	0
-19.506035845100001	-47.527941156899999	0	0
-18.8707984449	-50.254637896600002	0	0
-18.0282737691	-48.107920033100001	0	0
-27.524907664299999	-46.087038548099997	0	0
-26.3718415978	-44.089869536499997	0	0
-26.150092335699998	-46.8807885481	0	0
-24.997026269199999	-44.883619536499999	0	0
-34.086393854000001	-41.469909791200003	0	0
-32.648543987300002	-39.6669030869	0	0
-32.845236375600003	-42.459699851700002	0	0
-31.4073865089	-40.656693147399999	0	0
-39.886446331099997	-35.926411776599998	0	0
-38.195931854299999	-34.35784357	0	0
-38.806672109899999	-37.0901316231	0	0
-37.116157633100002	-35.521563416600003	0	0
-44.795501507499999	-29.580377089500001	0	0
-42.890085720499997	-28.281286602400002	0	0
-43.901230915299998	-30.892031143699999	0	0
-41.995815128300002	-29.5929406566	0	0
-48.703899202599999	-22.5735656582	0	0
-46.626145945499999	-21.572972425500001	0	0
-48.015108766700003	-24.003853736	0	0
-45.937355509600003	-23.003260503300002	0	0
-51.5243322703	-15.0624980719	0	0
-49.320655117400001	-14.3827536928	0	0
-51.056408430899999	-16.579469901100001	0	0
-48.852731278	-15.899725522000001	0	0
-53.193796896400002	-7.2149591687000001	0	0
-50.913422353999998	-6.8712480095000004	0	0
-52.957192298899997	-8.7847281052999993	0	0
-50.676817756399998	-8.4410169460999995	0	0
-53.674999999999997	0.79374999999999996	0	0
-51.368867866999999	0.79374999999999996	0	0
-53.674999999999997	-0.79374999999999996	0	0
-51.368867866999999	-0.79374999999999996	0	0
-52.957192298899997	8.7847281052999993	0	0
-50.676817756399998	8.4410169460999995	0	0
-53.193796896400002	7.2149591687000001	0	0
-50.913422353999998	6.8712480095000004	0	0
-51.056408430899999	16.579469901100001	0	0
-48.852731278	15.899725522000001	0	0
-51.5243322703	15.0624980719	0	0
-49.320655117400001	14.3827536928	0	0
-48.015108766700003	24.003853736	0	0
-45.937355509600003	23.003260503300002	0	0
-48.703899202599999	22.5735656582	0	0
-46.626145945499999	21.572972425500001	0	0
-43.901230915299998	30.892031143699999	0	0
-41.995815128300002	29.5929406566	0	0
-44.795501507499999	29.580377089500001	0	0
-42.890085720499997	28.281286602400002	0	0
-38.806672109899999	37.0901316231	0	0
-37.116157633100002	35.521563416600003	0	0
-39.886446331099997	35.926411776599998	0	0
-38.195931854299999	34.35784357	0	0
-32.845236375600003	42.459699851700002	0	0
-31.4073865089	40.656693147399999	0	0
-34.086393854000001	41.469909791200003	0	0
-32.648543987300002	39.6669030869	0	0
-26.150092335699998	46.8807885481	0	0
-24.997026269199999	44.883619536499999	0	0
-27.524907664299999	46.087038548099997	0	0
-26.3718415978	44.089869536499997	0	0
-18.8707984449	50.254637896600002	0	0
-18.0282737691	48.107920033100001	0	0
-20.348560520900001	49.6746590204	0	0
-19.506035845100001	47.527941156899999	0	0
-11.169962099799999	52.505881677700003	0	0
-10.656799423700001	50.257569091999997	0	0
-12.717660160399999	52.152629695000002	0	0
-12.204497484299999	49.904317109399997	0	0
-3.2196072592	53.584230825500001	0	0
-3.0472697891	51.2845471057	0	0
-4.8026682873000004	53.465596801899999	0	0
-4.6303308170999999	51.165913082099998	0	0
5.5016841749000003	53.2750548685	0	0
10.445838306000001	52.529843537600001	0	0
5.1758981546999996	51.113605853000003	0	0
10.1200522858	50.368394522099997	0	0
13.3804698165	51.860033045599998	0	0
18.158333845400001	50.386257173499999	0	0
12.736175297500001	49.771281516499997	0	0
17.514039326500001	48.297505644399997	0	0
20.960357873	49.286543780599999	0	0
25.465202212499999	47.117125084999998	0	0
20.0119473301	47.317148995399997	0	0
24.5167916696	45.147730299899997	0	0
28.072026170600001	45.612074571100003	0	0
32.203220042200002	42.795474280699999	0	0
26.8406855281	43.806029555099997	0	0
30.971879399700001	40.989429264800002	0	0
34.556611791199998	40.918706987299998	0	0
38.221871150299997	37.517843298499997	0	0
33.0698471643	39.3163558018	0	0
36.735106523399999	35.915492112899997	0	0
40.269259807399997	35.311283105599998	0	0
43.386708816700001	31.4021256933	0	0
38.560283061100002	33.9484196282	0	0
41.677732070300003	30.039262215800001	0	0
45.0823591025	28.915063509500001	0	0
47.5823591025	24.584936490499999	0	0
43.189345953199997	27.822131858199999	0	0
45.689345953199997	23.4920048392	0	0
48.888392991499998	21.872929175199999	0	0
50.715098113400003	17.218560432	0	0
46.853630225000003	21.0743436371	0	0
48.680335346900002	16.419974893900001	0	0
51.6023409668	14.342189747100001	0	0
52.7149456366	9.4675501862000004	0	0
49.471281820900003	13.855789403499999	0	0
50.583886490700003	8.9811498426000007	0	0
-48.905354171699997	1.575	0	0
-40.969737306900001	1.575	0	0
-48.905354171699997	3.0750000000000002	0	0
-49.905354171699997	3.0750000000000002	0	0
-48.905354171699997	-3.0750000000000002	0	0
-49.905354171699997	-3.0750000000000002	0	0
-48.905354171699997	-1.575	0	0
-40.969737306900001	-1.575	0	0
-48.435867831899998	-6.9412534190999997	0	0
-40.620810818599999	-5.5632480117999998	0	0
-48.6963400984	-5.4640417896000004	0	0
-49.681147851399999	-5.6376899672	0	0
-47.628403805700003	-11.5206094706	0	0
-48.613211558800003	-11.694257648200001	0	0
-47.888876072199999	-10.043397841099999	0	0
-40.0738190589	-8.6653924337999992	0	0
-46.4946821578	-15.246600365400001	0	0
-39.0376415486	-12.532459548	0	0
-47.0077123728	-13.837061434300001	0	0
-47.947404993600003	-14.1790815776	0	0
-44.904288491300001	-19.6161710521	0	0
-45.843981112100003	-19.958191195400001	0	0
-45.417318706300001	-18.2066321209	0	0
-37.960278097100002	-15.4924913035	0	0
-43.140779093699997	-23.088687074900001	0	0
-36.268333294199998	-19.120878642499999	0	0
-43.890779093699997	-21.789648969200002	0	0
-44.756804497499999	-22.289648969200002	0	0
-40.815779093700002	-27.115705202499999	0	0
-41.681804497500003	-27.615705202499999	0	0
-41.565779093700002	-25.8166670968	0	0
-34.693333294200002	-21.848858664400002	0	0
-38.476065287200001	-30.229235711000001	0	0
-32.397030085300003	-25.128319515099999	0	0
-39.4402467018	-29.0801690463	0	0
-40.2062911449	-29.722956656000001	0	0
-35.4871029022	-33.791342371500001	0	0
-36.2531473453	-34.434129981200002	0	0
-36.451284316699997	-32.6422757068	0	0
-30.372249114799999	-27.541359510900001	0	0
-32.6422757068	-36.451284316699997	0	0
-27.541359510900001	-30.372249114799999	0	0
-33.791342371500001	-35.4871029022	0	0
-34.434129981200002	-36.2531473453	0	0
-29.0801690463	-39.4402467018	0	0
-29.722956656000001	-40.2062911449	0	0
-30.229235711000001	-38.476065287200001	0	0
-25.128319515099999	-32.397030085300003	0	0
-25.8166670968	-41.565779093700002	0	0
-21.848858664400002	-34.693333294200002	0	0
-27.115705202499999	-40.815779093700002	0	0
-27.615705202499999	-41.681804497500003	0	0
-21.789648969200002	-43.890779093699997	0	0
-22.289648969200002	-44.756804497499999	0	0
-23.088687074900001	-43.140779093699997	0	0
-19.120878642499999	-36.268333294199998	0	0
-18.2066321209	-45.417318706300001	0	0
-15.4924913035	-37.960278097100002	0	0
-19.6161710521	-44.904288491300001	0	0
-19.958191195400001	-45.843981112100003	0	0
-13.837061434300001	-47.0077123728	0	0
-14.1790815776	-47.947404993600003	0	0
-15.246600365500001	-46.4946821578	0	0
-12.532459548	-39.0376415486	0	0
-10.043397841099999	-47.888876072199999	0	0
-8.6653924337999992	-40.0738190589	0	0
-11.5206094706	-47.628403805700003	0	0
-11.694257648200001	-48.613211558800003	0	0
-5.4640417896000004	-48.6963400984	0	0
-5.6376899672	-49.681147851399999	0	0
-6.9412534190999997	-48.435867831899998	0	0
-5.5632480117999998	-40.620810818599999	0	0
-1.575	-48.905354171699997	0	0
-1.575	-40.969737306900001	0	0
-3.0750000000000002	-48.905354171699997	0	0
-3.0750000000000002	-49.905354171699997	0	0
3.0750000000000002	-48.905354171699997	0	0
3.0750000000000002	-49.905354171699997	0	0
1.575	-48.905354171699997	0	0
1.575	-40.969737306900001	0	0
6.9412534190999997	-48.435867831899998	0	0
5.5632480117999998	-40.620810818599999	0	0
5.4640417896000004	-48.6963400984	0	0
5.6376899672	-49.681147851399999	0	0
11.5206094706	-47.628403805700003	0	0
11.694257648200001	-48.613211558800003	0	0
10.043397841099999	-47.888876072199999	0	0
8.6653924337999992	-40.0738190589	0	0
15.246600365400001	-46.4946821578	0	0
12.532459548	-39.0376415486	0	0
13.837061434300001	-47.0077123728	0	0
14.1790815776	-47.947404993600003	0	0
19.6161710521	-44.904288491300001	0	0
19.958191195400001	-45.843981112100003	0	0
18.2066321209	-45.417318706300001	0	0
15.4924913035	-37.960278097100002	0	0
23.088687074900001	-43.140779093699997	0	0
19.120878642499999	-36.268333294199998	0	0
21.789648969200002	-43.890779093699997	0	0
22.289648969200002	-44.756804497499999	0	0
27.115705202499999	-40.815779093700002	0	0
27.615705202499999	-41.681804497500003	0	0
25.8166670968	-41.565779093700002	0	0
21.848858664400002	-34.693333294200002	0	0
30.229235711000001	-38.476065287200001	0	0
25.128319515099999	-32.397030085300003	0	0
29.0801690463	-39.4402467018	0	0
29.722956656000001	-40.2062911449	0	0
33.791342371500001	-35.4871029022	0	0
34.434129981200002	-36.2531473453	0	0
32.6422757068	-36.451284316699997	0	0
27.541359510900001	-30.372249114799999	0	0
36.451284316699997	-32.6422757068	0	0
30.372249114799999	-27.541359510900001	0	0
35.4871029022	-33.791342371500001	0	0
36.2531473453	-34.434129981200002	0	0
39.4402467018	-29.0801690463	0	0
40.2062911449	-29.722956656000001	0	0
38.476065287200001	-30.229235711000001	0	0
32.397030085300003	-25.128319515099999	0	0
41.565779093700002	-25.8166670968	0	0
34.693333294200002	-21.848858664400002	0	0
40.815779093700002	-27.115705202499999	0	0
41.681804497500003	-27.615705202499999	0	0
43.890779093699997	-21.789648969200002	0	0
44.756804497499999	-22.289648969200002	0	0
43.140779093699997	-23.088687074900001	0	0
36.268333294199998	-19.120878642499999	0	0
45.417318706300001	-18.2066321209	0	0
37.960278097100002	-15.4924913035	0	0
44.904288491300001	-19.6161710521	0	0
45.843981112100003	-19.958191195400001	0	0
47.0077123728	-13.837061434300001	0	0
47.947404993600003	-14.1790815776	0	0
46.4946821578	-15.246600365500001	0	0
39.0376415486	-12.532459548	0	0
47.888876072199999	-10.043397841099999	0	0
40.0738190589	-8.6653924337999992	0	0
47.628403805700003	-11.5206094706	0	0
48.613211558800003	-11.694257648200001	0	0
48.6963400984	-5.4640417896000004	0	0
49.681147851399999	-5.6376899672	0	0
48.435867831899998	-6.9412534190999997	0	0
40.620810818599999	-5.5632480117999998	0	0
48.905354171699997	-1.575	0	0
40.969737306900001	-1.575	0	0
48.905354171699997	-3.0750000000000002	0	0
49.905354171699997	-3.0750000000000002	0	0
48.905354171699997	3.0750000000000002	0	0
49.905354171699997	3.0750000000000002	0	0
48.905354171699997	1.575	0	0
40.969737306900001	1.575	0	0
48.435867831899998	6.9412534190999997	0	0
40.620810818599999	5.5632480117999998	0	0
48.6963400984	5.4640417896000004	0	0
49.681147851399999	5.6376899672	0	0
47.628403805700003	11.5206094706	0	0
48.613211558800003	11.694257648200001	0	0
47.888876072199999	10.043397841099999	0	0
40.0738190589	8.6653924337999992	0	0
46.4946821578	15.246600365400001	0	0
39.0376415486	12.532459548	0	0
47.0077123728	13.837061434300001	0	0
47.947404993600003	14.1790815776	0	0
44.904288491300001	19.6161710521	0	0
45.843981112100003	19.958191195400001	0	0
45.417318706300001	18.2066321209	0	0
37.960278097100002	15.4924913035	0	0
43.140779093699997	23.088687074900001	0	0
36.268333294199998	19.120878642499999	0	0
43.890779093699997	21.789648969200002	0	0
44.756804497499999	22.289648969200002	0	0
40.815779093700002	27.115705202499999	0	0
41.681804497500003	27.615705202499999	0	0
41.565779093700002	25.8166670968	0	0
34.693333294200002	21.848858664400002	0	0
38.476065287200001	30.229235711000001	0	0
32.397030085300003	25.128319515099999	0	0
39.4402467018	29.0801690463	0	0
40.2062911449	29.722956656000001	0	0
35.4871029022	33.791342371500001	0	0
36.2531473453	34.434129981200002	0	0
36.451284316699997	32.6422757068	0	0
30.372249114799999	27.541359510900001	0	0
32.6422757068	36.451284316699997	0	0
27.541359510900001	30.372249114799999	0	0
33.791342371500001	35.4871029022	0	0
34.434129981200002	36.2531473453	0	0
29.0801690463	39.4402467018	0	0
29.722956656000001	40.2062911449	0	0